<routes>
    <vType id="car" accel="1.0" decel="4.5" length="5" maxSpeed="13.9"/>
    <route id="route0" edges="edge0"/>
    <flow id="flow0" type="car" route="route0" begin="0" end="50" number="20"/>
</routes>